Commwspython/server/sm_files/dss_files/VVE_VLN_Node.Txt

LINE-GROUND and LINE-LINE VOLTAGES BY BUS & NODE

Bus  Node    VLN (kV)   Angle      pu     Base kV    Node-Node   VLL (kV)  Angle      pu

MT . 1       7.9616 /_   -0.1   0.99926    13.800        1-2      13.79 /_   29.9   0.99926
   - 2       7.9616 /_ -120.1   0.99926    13.800        2-3      13.79 /_  -90.1   0.99926
   - 3       7.9616 /_  119.9   0.99926    13.800        3-1      13.79 /_  149.9   0.99926
10 . 1       7.9615 /_   -0.1   0.99925    13.800        1-2      13.79 /_   29.9   0.99925
   - 2       7.9615 /_ -120.1   0.99925    13.800        2-3      13.79 /_  -90.1   0.99925
   - 3       7.9615 /_  119.9   0.99925    13.800        3-1      13.79 /_  149.9   0.99925
20 . 1       7.9265 /_   -0.3   0.99486    13.800        1-2     13.729 /_   29.7   0.99486
   - 2       7.9265 /_ -120.3   0.99486    13.800        2-3     13.729 /_  -90.3   0.99486
   - 3       7.9265 /_  119.7   0.99486    13.800        3-1     13.729 /_  149.7   0.99486
30 . 1       7.9013 /_   -0.5    0.9917    13.800        1-2     13.685 /_   29.5    0.9917
   - 2       7.9013 /_ -120.5    0.9917    13.800        2-3     13.685 /_  -90.5    0.9917
   - 3       7.9013 /_  119.5    0.9917    13.800        3-1     13.685 /_  149.5    0.9917
40 . 1       7.9012 /_   -0.5   0.99169    13.800        1-2     13.685 /_   29.5   0.99169
   - 2       7.9012 /_ -120.5   0.99169    13.800        2-3     13.685 /_  -90.5   0.99169
   - 3       7.9012 /_  119.5   0.99169    13.800        3-1     13.685 /_  149.5   0.99169
50 . 1       7.8886 /_   -0.6   0.99011    13.800        1-2     13.663 /_   29.4   0.99011
   - 2       7.8886 /_ -120.6   0.99011    13.800        2-3     13.663 /_  -90.6   0.99011
   - 3       7.8886 /_  119.4   0.99011    13.800        3-1     13.663 /_  149.4   0.99011
60 . 1       7.8886 /_   -0.6   0.99011    13.800        1-2     13.664 /_   29.4   0.99011
   - 2       7.8886 /_ -120.6   0.99011    13.800        2-3     13.664 /_  -90.6   0.99011
   - 3       7.8886 /_  119.4   0.99011    13.800        3-1     13.664 /_  149.4   0.99011
70 . 1       7.8634 /_   -0.7   0.98695    13.800        1-2      13.62 /_   29.3   0.98695
   - 2       7.8634 /_ -120.7   0.98695    13.800        2-3      13.62 /_  -90.7   0.98695
   - 3       7.8634 /_  119.3   0.98695    13.800        3-1      13.62 /_  149.3   0.98695
80 . 1       7.8634 /_   -0.7   0.98695    13.800        1-2      13.62 /_   29.3   0.98695
   - 2       7.8634 /_ -120.7   0.98695    13.800        2-3      13.62 /_  -90.7   0.98695
   - 3       7.8634 /_  119.3   0.98695    13.800        3-1      13.62 /_  149.3   0.98695
11 . 1       7.9615 /_   -0.1   0.99926    13.800        1-2      13.79 /_   29.9   0.99926
   - 2       7.9615 /_ -120.1   0.99926    13.800        2-3      13.79 /_  -90.1   0.99926
   - 3       7.9615 /_  119.9   0.99926    13.800        3-1      13.79 /_  149.9   0.99926
21 . 1       7.9335 /_   -0.3   0.99575    13.800        1-2     13.741 /_   29.7   0.99575
   - 2       7.9335 /_ -120.3   0.99575    13.800        2-3     13.741 /_  -90.3   0.99575
   - 3       7.9335 /_  119.7   0.99575    13.800        3-1     13.741 /_  149.7   0.99575
31 . 1       7.9209 /_   -0.4   0.99417    13.800        1-2     13.719 /_   29.6   0.99417
   - 2       7.9209 /_ -120.4   0.99417    13.800        2-3     13.719 /_  -90.4   0.99417
   - 3       7.9209 /_  119.6   0.99417    13.800        3-1     13.719 /_  149.6   0.99417
41 . 1       7.9209 /_   -0.4   0.99416    13.800        1-2     13.719 /_   29.6   0.99416
   - 2       7.9209 /_ -120.4   0.99416    13.800        2-3     13.719 /_  -90.4   0.99416
   - 3       7.9209 /_  119.6   0.99416    13.800        3-1     13.719 /_  149.6   0.99416
51 . 1       7.9083 /_   -0.4   0.99258    13.800        1-2     13.698 /_   29.6   0.99258
   - 2       7.9083 /_ -120.4   0.99258    13.800        2-3     13.698 /_  -90.4   0.99258
   - 3       7.9083 /_  119.6   0.99258    13.800        3-1     13.698 /_  149.6   0.99258
61 . 1       7.8957 /_   -0.5     0.991    13.800        1-2     13.676 /_   29.5     0.991
   - 2       7.8957 /_ -120.5     0.991    13.800        2-3     13.676 /_  -90.5     0.991
   - 3       7.8957 /_  119.5     0.991    13.800        3-1     13.676 /_  149.5     0.991
71 . 1       7.8831 /_   -0.6   0.98941    13.800        1-2     13.654 /_   29.4   0.98941
   - 2       7.8831 /_ -120.6   0.98941    13.800        2-3     13.654 /_  -90.6   0.98941
   - 3       7.8831 /_  119.4   0.98941    13.800        3-1     13.654 /_  149.4   0.98941
12 . 1       7.9615 /_   -0.1   0.99926    13.800        1-2      13.79 /_   29.9   0.99926
   - 2       7.9615 /_ -120.1   0.99926    13.800        2-3      13.79 /_  -90.1   0.99926
   - 3       7.9615 /_  119.9   0.99926    13.800        3-1      13.79 /_  149.9   0.99926
22 . 1       7.9462 /_   -0.2   0.99733    13.800        1-2     13.763 /_   29.8   0.99733
   - 2       7.9462 /_ -120.2   0.99733    13.800        2-3     13.763 /_  -90.2   0.99733
   - 3       7.9462 /_  119.8   0.99733    13.800        3-1     13.763 /_  149.8   0.99733
32 . 1       7.9309 /_   -0.3   0.99541    13.800        1-2     13.737 /_   29.7   0.99541
   - 2       7.9309 /_ -120.3   0.99541    13.800        2-3     13.737 /_  -90.3   0.99541
   - 3       7.9309 /_  119.7   0.99541    13.800        3-1     13.737 /_  149.7   0.99541
42 . 1       7.9012 /_   -0.5   0.99168    13.800        1-2     13.685 /_   29.5   0.99168
   - 2       7.9012 /_ -120.5   0.99168    13.800        2-3     13.685 /_  -90.5   0.99168
   - 3       7.9012 /_  119.5   0.99168    13.800        3-1     13.685 /_  149.5   0.99168
52 . 1       7.8886 /_   -0.6    0.9901    13.800        1-2     13.663 /_   29.4    0.9901
   - 2       7.8886 /_ -120.6    0.9901    13.800        2-3     13.663 /_  -90.6    0.9901
   - 3       7.8886 /_  119.4    0.9901    13.800        3-1     13.663 /_  149.4    0.9901
62 . 1        7.876 /_   -0.6   0.98852    13.800        1-2     13.642 /_   29.4   0.98852
   - 2        7.876 /_ -120.6   0.98852    13.800        2-3     13.642 /_  -90.6   0.98852
   - 3        7.876 /_  119.4   0.98852    13.800        3-1     13.642 /_  149.4   0.98852
72 . 1       7.8634 /_   -0.7   0.98694    13.800        1-2      13.62 /_   29.3   0.98694
   - 2       7.8634 /_ -120.7   0.98694    13.800        2-3      13.62 /_  -90.7   0.98694
   - 3       7.8634 /_  119.3   0.98694    13.800        3-1      13.62 /_  149.3   0.98694
82 . 1       7.8634 /_   -0.7   0.98695    13.800        1-2      13.62 /_   29.3   0.98695
   - 2       7.8634 /_ -120.7   0.98695    13.800        2-3      13.62 /_  -90.7   0.98695
   - 3       7.8634 /_  119.3   0.98695    13.800        3-1      13.62 /_  149.3   0.98695
